units metal
atom_style atomic

read_data /u/vld/spet5633/Silicon/a-Si_potential/DFT_1200eV/Testing/Paper/l-SiH/1,000_structures/NVT_2.58/Hconc-50/9/SiH.data
Reading data file ...
  orthogonal box = (0 0 0) to (21.076377 21.076377 21.076377)
  reading atoms ...
  1000 atoms
# reset_timestep 0

mass 2 28.0855
mass 1 1.00784

labelmap atom 2 Si 1 H

pair_style  pace
ACE version: 2023.11.25
Recursive evaluator is used
pair_coeff  * * /u/vld/spet5633/Silicon/a-Si_potential/DFT_1200eV/Testing/Ites/Ite_6.8_kappa_auto_10/output_potential_tuned_repulsion_vHH_vSiH.yaml H Si
Loading /u/vld/spet5633/Silicon/a-Si_potential/DFT_1200eV/Testing/Ites/Ite_6.8_kappa_auto_10/output_potential_tuned_repulsion_vHH_vSiH.yaml
Total number of basis functions
	H: 26 (r=1) 1352 (r>1)
	Si: 28 (r=1) 2101 (r>1)
Mapping LAMMPS atom type #1(H) -> ACE species type #0
Mapping LAMMPS atom type #2(Si) -> ACE species type #1

neighbor 2.0 bin #default bin value for unit style (ie. metal)
neigh_modify every 1 delay 0 check yes #rebuild the neighbor list at every timestep

variable Nfreq equal 1000
variable Nprint equal 1000
variable Nevery equal 1000
variable Nrepeat equal 1000/1000
variable Ndump equal 10000
#variable nAtoms equal atoms

timestep 0.0001

fix removeMomentum all momentum 1 linear 1 1 1

compute T all temp
fix TempAve all ave/time 1000 1 1000 c_T

variable P equal press
fix PressAve all ave/time 1000 1 1000 v_P

variable v equal vol
fix vAve all ave/time 1000 1 1000 v_v

compute PE all pe pair
fix PEAve all ave/time 1000 1 1000 c_PE
compute PEa all pe/atom pair

compute MSD all msd

thermo_style custom step cpu temp f_TempAve press f_PressAve f_PEAve vol f_vAve c_MSD[4]
thermo_modify flush yes
thermo 1000

######### Extrapolation grade check for >5  #########
# fix pace_gamma_1 all pair 100 pace/extrapolation gamma 1 # compute per-atom extrapolation grade every 10 steps
# compute gamma_ave all reduce ave f_pace_gamma_1 # compute average gamma
# compute max_pace_gamma_1 all reduce max f_pace_gamma_1 # compute maximum extrapolation grade over complete structure
# dump extrapolative structures if c_max_pace_gamma > 5, skip otherwise, check every 20 steps
# variable dump_skip equal "c_max_pace_gamma_1 < 5"
# dump_modify pace_dump skip v_dump_skip
# dump_modify pace_dump element H Si

######### Dumping  #########
dump ens all custom 10000 /u/vld/spet5633/Silicon/a-Si_potential/DFT_1200eV/Testing/Paper/l-SiH/1,000_structures/NVT_2.58/Hconc-50/9/NPT/dump_custom_pace id element x y z fx fy fz c_PEa
#difference between dump ens and dump sep is that dump sep has a .dat file for each timestep vs ens is 1 big file
dump_modify ens sort 1 #sorting the dump by the 1st column of data ie the id
dump_modify ens element H Si

# variable max_pace_gamma equal c_gamma_ave
# fix extreme_extrapolation all halt 10 v_max_pace_gamma > 25

minimize 0 1.0e-6 1000 100000

CITE-CITE-CITE-CITE-CITE-CITE-CITE-CITE-CITE-CITE-CITE-CITE-CITE

Your simulation uses code contributions which should be cited:

- Type Label Framework: https://doi.org/10.1021/acs.jpcb.3c08419

@Article{Gissinger24,
 author = {Jacob R. Gissinger, Ilia Nikiforov, Yaser Afshar, Brendon Waters, Moon-ki Choi, Daniel S. Karls, Alexander Stukowski, Wonpil Im, Hendrik Heinz, Axel Kohlmeyer, and Ellad B. Tadmor},
 title = {Type Label Framework for Bonded Force Fields in LAMMPS},
 journal = {J. Phys. Chem. B},
 year =    2024,
 volume =  128,
 number =  13,
 pages =   {3282--3297}
}

CITE-CITE-CITE-CITE-CITE-CITE-CITE-CITE-CITE-CITE-CITE-CITE-CITE

Step          CPU            Temp        f_TempAve        Press        f_PressAve      f_PEAve         Volume         f_vAve        c_MSD[4]
0   0              0              0              486731.23      0              0              9362.4153      0              0
Loop time of 479.298 on 16 procs for 1000 steps with 1000 atoms

Minimization stats:
  Stopping criterion = max iterations
  Energy initial, next-to-last, final =
  Force two-norm initial, final = 292.45774 21.192337
  Force max component initial, final = 74.107557 12.690044
  Final line search alpha, max atom move = 1.7782636e-05 0.00022566243
  Iterations, force evaluations = 1000 13245

velocity all create 2000 125864802

fix integrate all nvt temp 2000 2000 $(100.0*dt)
fix integrate all nvt temp 2000 2000 0.010000000000000000208
run 1000000
Step          CPU            Temp        f_TempAve        Press        f_PressAve      f_PEAve         Volume         f_vAve        c_MSD[4]
1000   0              2000           2000           121880.49      121880.49     -4319.094       9362.4153      9362.4153      0.8628868
ERROR: Lost atoms: original 1000 current 998
For more information see https://docs.lammps.org/err0008 (src/thermo.cpp:518)

units metal
atom_style atomic

read_data /u/vld/spet5633/Silicon/a-Si_potential/DFT_1200eV/Testing/Paper/l-SiH/1,000_structures/NVT_2.58/Hconc-50/9/SiH.data
Reading data file ...
  orthogonal box = (0 0 0) to (21.076377 21.076377 21.076377)
  reading atoms ...
  1000 atoms
# reset_timestep 0

mass 2 28.0855
mass 1 1.00784

labelmap atom 2 Si 1 H

pair_style  pace
ACE version: 2023.11.25
Recursive evaluator is used
pair_coeff  * * /u/vld/spet5633/Silicon/a-Si_potential/DFT_1200eV/Testing/Ites/Ite_6.8_kappa_auto_10/output_potential_tuned_repulsion_vHH_vSiH.yaml H Si
Loading /u/vld/spet5633/Silicon/a-Si_potential/DFT_1200eV/Testing/Ites/Ite_6.8_kappa_auto_10/output_potential_tuned_repulsion_vHH_vSiH.yaml
Total number of basis functions
	H: 26 (r=1) 1352 (r>1)
	Si: 28 (r=1) 2101 (r>1)
Mapping LAMMPS atom type #1(H) -> ACE species type #0
Mapping LAMMPS atom type #2(Si) -> ACE species type #1

neighbor 2.0 bin #default bin value for unit style (ie. metal)
neigh_modify every 1 delay 0 check yes #rebuild the neighbor list at every timestep

variable Nfreq equal 1000
variable Nprint equal 1000
variable Nevery equal 1000
variable Nrepeat equal 1000/1000
variable Ndump equal 10000
#variable nAtoms equal atoms

timestep 0.0001

fix removeMomentum all momentum 1 linear 1 1 1

compute T all temp
fix TempAve all ave/time 1000 1 1000 c_T

variable P equal press
fix PressAve all ave/time 1000 1 1000 v_P

variable v equal vol
fix vAve all ave/time 1000 1 1000 v_v

compute PE all pe pair
fix PEAve all ave/time 1000 1 1000 c_PE
compute PEa all pe/atom pair

compute MSD all msd

thermo_style custom step cpu temp f_TempAve press f_PressAve f_PEAve vol f_vAve c_MSD[4]
thermo_modify flush yes
thermo 1000

######### Extrapolation grade check for >5  #########
# fix pace_gamma_1 all pair 100 pace/extrapolation gamma 1 # compute per-atom extrapolation grade every 10 steps
# compute gamma_ave all reduce ave f_pace_gamma_1 # compute average gamma
# compute max_pace_gamma_1 all reduce max f_pace_gamma_1 # compute maximum extrapolation grade over complete structure
# dump extrapolative structures if c_max_pace_gamma > 5, skip otherwise, check every 20 steps
# variable dump_skip equal "c_max_pace_gamma_1 < 5"
# dump_modify pace_dump skip v_dump_skip
# dump_modify pace_dump element H Si

######### Dumping  #########
dump ens all custom 10000 /u/vld/spet5633/Silicon/a-Si_potential/DFT_1200eV/Testing/Paper/l-SiH/1,000_structures/NVT_2.58/Hconc-50/9/NPT/dump_custom_pace id element x y z fx fy fz c_PEa
#difference between dump ens and dump sep is that dump sep has a .dat file for each timestep vs ens is 1 big file
dump_modify ens sort 1 #sorting the dump by the 1st column of data ie the id
dump_modify ens element H Si

# variable max_pace_gamma equal c_gamma_ave
# fix extreme_extrapolation all halt 10 v_max_pace_gamma > 25

# minimize 0 1.0e-6 1000 100000

velocity all create 2000 977016240

fix integrate all nvt temp 2000 2000 $(100.0*dt)
fix integrate all nvt temp 2000 2000 0.010000000000000000208
run 1000000

CITE-CITE-CITE-CITE-CITE-CITE-CITE-CITE-CITE-CITE-CITE-CITE-CITE

Your simulation uses code contributions which should be cited:

- Type Label Framework: https://doi.org/10.1021/acs.jpcb.3c08419

@Article{Gissinger24,
 author = {Jacob R. Gissinger, Ilia Nikiforov, Yaser Afshar, Brendon Waters, Moon-ki Choi, Daniel S. Karls, Alexander Stukowski, Wonpil Im, Hendrik Heinz, Axel Kohlmeyer, and Ellad B. Tadmor},
 title = {Type Label Framework for Bonded Force Fields in LAMMPS},
 journal = {J. Phys. Chem. B},
 year =    2024,
 volume =  128,
 number =  13,
 pages =   {3282--3297}
}

CITE-CITE-CITE-CITE-CITE-CITE-CITE-CITE-CITE-CITE-CITE-CITE-CITE

Step          CPU            Temp        f_TempAve        Press        f_PressAve      f_PEAve         Volume         f_vAve        c_MSD[4]
0   0              2000           2000           516195.2       516195.2      -3197.9409      9362.4153      9362.4153      0
Averages over the last 8 of 15 rows, steps 7000 to 14000:
Temp f_TempAve Press f_PressAve f_PEAve Volume f_vAve c_MSD[4]
1987.93 1987.93 195601 195601 -3990.31 9362.42 9362.42 85.9445
ures/NVT_2.58/Hconc-50/9/SiH.data
Reading data file ...
  orthogonal box = (0 0 0) to (21.076377 21.076377 21.076377)
  reading atoms ...
  1000 atoms
# reset_timestep 0

mass 2 28.0855
mass 1 1.00784

labelmap atom 2 Si 1 H

pair_style  pace
ACE version: 2023.11.25
Recursive evaluator is used
pair_coeff  * * /u/vld/spet5633/Silicon/a-Si_potential/DFT_1200eV/Testing/Ites/Ite_6.8_kappa_auto_10/output_potential_tuned_repulsion_vHH_vSiH.yaml H Si
Loading /u/vld/spet5633/Silicon/a-Si_potential/DFT_1200eV/Testing/Ites/Ite_6.8_kappa_auto_10/output_potential_tuned_repulsion_vHH_vSiH.yaml
Total number of basis functions
	H: 26 (r=1) 1352 (r>1)
	Si: 28 (r=1) 2101 (r>1)
Mapping LAMMPS atom type #1(H) -> ACE species type #0
Mapping LAMMPS atom type #2(Si) -> ACE species type #1

neighbor 2.0 bin #default bin value for unit style (ie. metal)
neigh_modify every 1 delay 0 check yes #rebuild the neighbor list at every timestep

variable Nfreq equal 1000
variable Nprint equal 1000
variable Nevery equal 1000
variable Nrepeat equal 1000/1000
variable Ndump equal 10000
#variable nAtoms equal atoms

timestep 0.0001

fix removeMomentum all momentum 1 linear 1 1 1

compute T all temp
fix TempAve all ave/time 1000 1 1000 c_T

variable P equal press
fix PressAve all ave/time 1000 1 1000 v_P

variable v equal vol
fix vAve all ave/time 1000 1 1000 v_v

compute PE all pe pair
fix PEAve all ave/time 1000 1 1000 c_PE
compute PEa all pe/atom pair

compute MSD all msd

thermo_style custom step cpu temp f_TempAve press f_PressAve f_PEAve vol f_vAve c_MSD[4]
thermo_modify flush yes
thermo 1000

######### Extrapolation grade check for >5  #########
# fix pace_gamma_1 all pair 100 pace/extrapolation gamma 1 # compute per-atom extrapolation grade every 10 steps
# compute gamma_ave all reduce ave f_pace_gamma_1 # compute average gamma
# compute max_pace_gamma_1 all reduce max f_pace_gamma_1 # compute maximum extrapolation grade over complete structure
# dump extrapolative structures if c_max_pace_gamma > 5, skip otherwise, check every 20 steps
# variable dump_skip equal "c_max_pace_gamma_1 < 5"
# dump_modify pace_dump skip v_dump_skip
# dump_modify pace_dump element H Si

######### Dumping  #########
dump ens all custom 10000 /u/vld/spet5633/Silicon/a-Si_potential/DFT_1200eV/Testing/Paper/l-SiH/1,000_structures/NVT_2.58/Hconc-50/9/NPT/dump_custom_pace id element x y z fx fy fz c_PEa
#difference between dump ens and dump sep is that dump sep has a .dat file for each timestep vs ens is 1 big file
dump_modify ens sort 1 #sorting the dump by the 1st column of data ie the id
dump_modify ens element H Si

# variable max_pace_gamma equal c_gamma_ave
# fix extreme_extrapolation all halt 10 v_max_pace_gamma > 25

# minimize 0 1.0e-6 1000 100000

velocity all create 2000 1130020937

fix integrate all nvt temp 2000 2000 $(100.0*dt)
fix integrate all nvt temp 2000 2000 0.010000000000000000208
run 1000000

CITE-CITE-CITE-CITE-CITE-CITE-CITE-CITE-CITE-CITE-CITE-CITE-CITE

Your simulation uses code contributions which should be cited:

- Type Label Framework: https://doi.org/10.1021/acs.jpcb.3c08419

@Article{Gissinger24,
 author = {Jacob R. Gissinger, Ilia Nikiforov, Yaser Afshar, Brendon Waters, Moon-ki Choi, Daniel S. Karls, Alexander Stukowski, Wonpil Im, Hendrik Heinz, Axel Kohlmeyer, and Ellad B. Tadmor},
 title = {Type Label Framework for Bonded Force Fields in LAMMPS},
 journal = {J. Phys. Chem. B},
 year =    2024,
 volume =  128,
 number =  13,
 pages =   {3282--3297}
}

CITE-CITE-CITE-CITE-CITE-CITE-CITE-CITE-CITE-CITE-CITE-CITE-CITE

Step          CPU            Temp        f_TempAve        Press        f_PressAve      f_PEAve         Volume         f_vAve        c_MSD[4]
0   0              2000           2000           516195.2       516195.2      -3197.9409      9362.4153      9362.4153      0
                                                                                                                                                         2000   71.979406      1988.247       1988.247       189534.69      189534.69     -4028.4242      9362.4153      9362.4153      41.990725
ERROR: Lost atoms: original 1000 current 998
For more information see https://docs.lammps.org/err0008 (src/thermo.cpp:518)

units metal
atom_style atomic

read_data /u/vld/spet5633/Silicon/a-Si_potential/DFT_1200eV/Testing/Paper/l-SiH/1,000_structures/NVT_2.58/Hconc-50/9/SiH.data
Reading data file ...
  orthogonal box = (0 0 0) to (21.158708 21.158708 21.158708)
  reading atoms ...
  1000 atoms
# reset_timestep 0

mass 2 28.0855
mass 1 1.00784

labelmap atom 2 Si 1 H

pair_style  pace
ACE version: 2023.11.25
Recursive evaluator is used
pair_coeff  * * /u/vld/spet5633/Silicon/a-Si_potential/DFT_1200eV/Testing/Ites/Ite_6.8_kappa_auto_10/output_potential_tuned_repulsion_vHH_vSiH.yaml H Si
Loading /u/vld/spet5633/Silicon/a-Si_potential/DFT_1200eV/Testing/Ites/Ite_6.8_kappa_auto_10/output_potential_tuned_repulsion_vHH_vSiH.yaml
Total number of basis functions
	H: 26 (r=1) 1352 (r>1)
	Si: 28 (r=1) 2101 (r>1)
Mapping LAMMPS atom type #1(H) -> ACE species type #0
Mapping LAMMPS atom type #2(Si) -> ACE species type #1

neighbor 2.0 bin #default bin value for unit style (ie. metal)
neigh_modify every 1 delay 0 check yes #rebuild the neighbor list at every timestep

variable Nfreq equal 1000
variable Nprint equal 1000
variable Nevery equal 1000
variable Nrepeat equal 1000/1000
variable Ndump equal 10000
#variable nAtoms equal atoms

timestep 0.0001

fix removeMomentum all momentum 1 linear 1 1 1

compute T all temp
fix TempAve all ave/time 1000 1 1000 c_T

variable P equal press
fix PressAve all ave/time 1000 1 1000 v_P

variable v equal vol
fix vAve all ave/time 1000 1 1000 v_v

compute PE all pe pair
fix PEAve all ave/time 1000 1 1000 c_PE
compute PEa all pe/atom pair

compute MSD all msd

thermo_style custom step cpu temp f_TempAve press f_PressAve f_PEAve vol f_vAve c_MSD[4]
thermo_modify flush yes
thermo 1000

######### Extrapolation grade check for >5  #########
# fix pace_gamma_1 all pair 100 pace/extrapolation gamma 1 # compute per-atom extrapolation grade every 10 steps
# compute gamma_ave all reduce ave f_pace_gamma_1 # compute average gamma
# compute max_pace_gamma_1 all reduce max f_pace_gamma_1 # compute maximum extrapolation grade over complete structure
# dump extrapolative structures if c_max_pace_gamma > 5, skip otherwise, check every 20 steps
# variable dump_skip equal "c_max_pace_gamma_1 < 5"
# dump_modify pace_dump skip v_dump_skip
# dump_modify pace_dump element H Si

######### Dumping  #########
dump ens all custom 10000 /u/vld/spet5633/Silicon/a-Si_potential/DFT_1200eV/Testing/Paper/l-SiH/1,000_structures/NVT_2.58/Hconc-50/9/NPT/dump_custom_pace id element x y z fx fy fz c_PEa
#difference between dump ens and dump sep is that dump sep has a .dat file for each timestep vs ens is 1 big file
dump_modify ens sort 1 #sorting the dump by the 1st column of data ie the id
dump_modify ens element H Si

# variable max_pace_gamma equal c_gamma_ave
# fix extreme_extrapolation all halt 10 v_max_pace_gamma > 25

# minimize 0 1.0e-6 1000 100000

velocity all create 2000 362728785

fix integrate all nvt temp 2000 2000 $(100.0*dt)
fix integrate all nvt temp 2000 2000 0.010000000000000000208
run 1000000

CITE-CITE-CITE-CITE-CITE-CITE-CITE-CITE-CITE-CITE-CITE-CITE-CITE

Your simulation uses code contributions which should be cited:

- Type Label Framework: https://doi.org/10.1021/acs.jpcb.3c08419

@Article{Gissinger24,
 author = {Jacob R. Gissinger, Ilia Nikiforov, Yaser Afshar, Brendon Waters, Moon-ki Choi, Daniel S. Karls, Alexander Stukowski, Wonpil Im, Hendrik Heinz, Axel Kohlmeyer, and Ellad B. Tadmor},
 title = {Type Label Framework for Bonded Force Fields in LAMMPS},
 journal = {J. Phys. Chem. B},
 year =    2024,
 volume =  128,
 number =  13,
 pages =   {3282--3297}
}

CITE-CITE-CITE-CITE-CITE-CITE-CITE-CITE-CITE-CITE-CITE-CITE-CITE

Step          CPU            Temp        f_TempAve        Press        f_PressAve      f_PEAve         Volume         f_vAve        c_MSD[4]
0   0              2000           2000           446600.48      446600.48     -3245.2236      9472.5614      9472.5614      0
ERROR: Lost atoms: original 1000 current 992
For more information see https://docs.lammps.org/err0008 (src/thermo.cpp:518)

units metal
atom_style atomic

read_data /u/vld/spet5633/Silicon/a-Si_potential/DFT_1200eV/Testing/Paper/l-SiH/1,000_structures/NVT_2.58/Hconc-50/9/SiH.data
Reading data file ...
  orthogonal box = (0 0 0) to (21.158708 21.158708 21.158708)
  reading atoms ...
  1000 atoms
# reset_timestep 0

mass 2 28.0855
mass 1 1.00784

labelmap atom 2 Si 1 H

pair_style  pace
ACE version: 2023.11.25
Recursive evaluator is used
pair_coeff  * * /u/vld/spet5633/Silicon/a-Si_potential/DFT_1200eV/Testing/Ites/Ite_6.8_kappa_auto_10/output_potential_tuned_repulsion_vHH_vSiH.yaml H Si
Loading /u/vld/spet5633/Silicon/a-Si_potential/DFT_1200eV/Testing/Ites/Ite_6.8_kappa_auto_10/output_potential_tuned_repulsion_vHH_vSiH.yaml
Total number of basis functions
	H: 26 (r=1) 1352 (r>1)
	Si: 28 (r=1) 2101 (r>1)
Mapping LAMMPS atom type #1(H) -> ACE species type #0
Mapping LAMMPS atom type #2(Si) -> ACE species type #1

neighbor 2.0 bin #default bin value for unit style (ie. metal)
neigh_modify every 1 delay 0 check yes #rebuild the neighbor list at every timestep

variable Nfreq equal 1000
variable Nprint equal 1000
variable Nevery equal 1000
variable Nrepeat equal 1000/1000
variable Ndump equal 10000
#variable nAtoms equal atoms

timestep 0.0001

fix removeMomentum all momentum 1 linear 1 1 1

compute T all temp
fix TempAve all ave/time 1000 1 1000 c_T

variable P equal press
fix PressAve all ave/time 1000 1 1000 v_P

variable v equal vol
fix vAve all ave/time 1000 1 1000 v_v

compute PE all pe pair
fix PEAve all ave/time 1000 1 1000 c_PE
compute PEa all pe/atom pair

compute MSD all msd

thermo_style custom step cpu temp f_TempAve press f_PressAve f_PEAve vol f_vAve c_MSD[4]
thermo_modify flush yes
thermo 1000

######### Extrapolation grade check for >5  #########
# fix pace_gamma_1 all pair 100 pace/extrapolation gamma 1 # compute per-atom extrapolation grade every 10 steps
# compute gamma_ave all reduce ave f_pace_gamma_1 # compute average gamma
# compute max_pace_gamma_1 all reduce max f_pace_gamma_1 # compute maximum extrapolation grade over complete structure
# dump extrapolative structures if c_max_pace_gamma > 5, skip otherwise, check every 20 steps
# variable dump_skip equal "c_max_pace_gamma_1 < 5"
# dump_modify pace_dump skip v_dump_skip
# dump_modify pace_dump element H Si

######### Dumping  #########
dump ens all custom 10000 /u/vld/spet5633/Silicon/a-Si_potential/DFT_1200eV/Testing/Paper/l-SiH/1,000_structures/NVT_2.58/Hconc-50/9/NPT/dump_custom_pace id element x y z fx fy fz c_PEa
#difference between dump ens and dump sep is that dump sep has a .dat file for each timestep vs ens is 1 big file
dump_modify ens sort 1 #sorting the dump by the 1st column of data ie the id
dump_modify ens element H Si

# variable max_pace_gamma equal c_gamma_ave
# fix extreme_extrapolation all halt 10 v_max_pace_gamma > 25

# minimize 0 1.0e-6 1000 100000

velocity all create 2000 1192356593

fix integrate all nvt temp 2000 2000 $(100.0*dt)
fix integrate all nvt temp 2000 2000 0.010000000000000000208
run 1000000

CITE-CITE-CITE-CITE-CITE-CITE-CITE-CITE-CITE-CITE-CITE-CITE-CITE

Your simulation uses code contributions which should be cited:

- Type Label Framework: https://doi.org/10.1021/acs.jpcb.3c08419

@Article{Gissinger24,
 author = {Jacob R. Gissinger, Ilia Nikiforov, Yaser Afshar, Brendon Waters, Moon-ki Choi, Daniel S. Karls, Alexander Stukowski, Wonpil Im, Hendrik Heinz, Axel Kohlmeyer, and Ellad B. Tadmor},
 title = {Type Label Framework for Bonded Force Fields in LAMMPS},
 journal = {J. Phys. Chem. B},
 year =    2024,
 volume =  128,
 number =  13,
 pages =   {3282--3297}
}

CITE-CITE-CITE-CITE-CITE-CITE-CITE-CITE-CITE-CITE-CITE-CITE-CITE

Step          CPU            Temp        f_TempAve        Press        f_PressAve      f_PEAve         Volume         f_vAve        c_MSD[4]
0   0              2000           2000           446600.48      446600.48     -3245.2236      9472.5614      9472.5614      0
Averages over the last 6 of 12 rows, steps 6000 to 11000:
Temp f_TempAve Press f_PressAve f_PEAve Volume f_vAve c_MSD[4]
56561 56561 -1.30254e+06 -1.30254e+06 -9485.96 9472.56 9472.56 137.966
ERROR: Lost atoms: original 1000 current 998
For more information see https://docs.lammps.org/err0008 (src/thermo.cpp:518)
